Version 4
SHEET 1 880 680
WIRE 112 48 -16 48
WIRE 192 48 112 48
WIRE 400 48 272 48
WIRE 672 48 400 48
WIRE -16 128 -16 48
WIRE 400 128 400 112
WIRE 112 352 112 48
WIRE 192 352 112 352
WIRE 400 352 256 352
WIRE 672 352 400 352
FLAG -16 208 0
FLAG 672 432 0
FLAG 672 128 0
FLAG 400 128 0
FLAG 400 432 0
SYMBOL voltage -16 112 R0
WINDOW 123 24 152 Left 2
WINDOW 39 24 124 Left 2
SYMATTR Value2 AC 1
SYMATTR SpiceLine Rser=0.1
SYMATTR InstName V1
SYMATTR Value SINE(0 1 20)
SYMBOL ind 288 32 R90
WINDOW 0 5 56 VBottom 2
WINDOW 3 32 56 VTop 2
SYMATTR InstName L1
SYMATTR Value 0.5m
SYMATTR SpiceLine Rser=0.1
SYMBOL cap 256 336 R90
WINDOW 0 0 32 VBottom 2
WINDOW 3 32 32 VTop 2
SYMATTR InstName C2
SYMATTR Value 22µ
SYMBOL res 656 32 R0
SYMATTR InstName R1
SYMATTR Value 8
SYMBOL res 656 336 R0
SYMATTR InstName R2
SYMATTR Value 4
SYMBOL cap 384 48 R0
SYMATTR InstName C1
SYMATTR Value 47µF
SYMBOL ind 384 336 R0
SYMATTR InstName L2
SYMATTR Value 0.3m
TEXT 96 384 Left 2 !.ac oct 24 20 20000
